<?xml version="1.0" encoding="UTF-8"?>

<!-- generated on 2026-04-11T20:19:31.260210+05:30 by Eclipse SUMO netedit 1.26.0
-->

<additional xmlns:xsi="http://www.w3.org/2001/XMLSchema-instance" xsi:noNamespaceSchemaLocation="http://sumo.dlr.de/xsd/additional_file.xsd">
    <!-- Shapes -->
    <poly id="po_0" type="Terrain" color="red" fill="0" layer="0.00" shape="-141.234586,57.320196 -136.218837,-95.467254 243.048998,-95.853080 226.072615,73.139098 -140.848759,56.548542"/>
    <poly id="po_1" type="Roadside" color="185,185,185" fill="1" layer="0.00" shape="-77.780268,15.341981 46.047156,15.206503 60.001450,15.071024 144.133649,15.071024 149.146356,11.955017 150.365663,-51.719917 146.843220,-56.326188 53.092042,-58.087410 50.653427,-54.158531 48.485770,0.439337 57.562835,0.845773 59.053099,0.981252 60.949800,-44.810509 62.169107,-46.436252 65.691550,-46.978166 137.088762,-46.029816 138.308070,-44.539552 138.308070,-41.152587 137.224241,2.742473 58.917621,1.116730 45.776198,0.168380 -2.318698,-0.644491 -24.672664,-1.186406 -56.374652,-0.915449 -79.135054,-0.509013 -78.051225,15.477460"/>
    <poly id="po_2" type="Residential" color="185,185,185" fill="1" layer="0.00" shape="58.253947,43.000059 59.705999,17.734357 140.149672,18.315178 137.826389,45.613753 57.673127,43.290470"/>
    <poly id="po_3" type="Wood" color="255,106,106" fill="1" layer="0.00" shape="-28.677624,-5.039854 42.654162,-3.024832 45.072188,-32.041151 -25.050584,-30.832138 -28.274619,-4.636849"/>
</additional>
