<?xml version="1.0" encoding="UTF-8"?>

<!-- generated on 2026-04-12T00:50:25.104637+05:30 by Eclipse SUMO netedit 1.26.0
<neteditConfiguration xmlns:xsi="http://www.w3.org/2001/XMLSchema-instance" xsi:noNamespaceSchemaLocation="http://sumo.dlr.de/xsd/neteditConfiguration.xsd">

    <input>
        <sumocfg-file value="C:\Users\arije\Downloads\SUMO2Unity-main\SUMO2Unity-main\Scenario2\Sumo2Unity.sumocfg"/>
        <additional-files value="C:\Users\arije\Downloads\SUMO2Unity-main\SUMO2Unity-main\Scenario2\Sumo2Unity.Poly.xml.add.xml"/>
        <route-files value="C:\Users\arije\Downloads\SUMO2Unity-main\SUMO2Unity-main\Scenario2\Sumo2Unity.rou.xml"/>
        <sumo-net-file value="C:\Users\arije\Downloads\SUMO2Unity-main\SUMO2Unity-main\Scenario2\Sumo2Unity.net.xml"/>
    </input>

    <output>
        <output-file value="C:\Users\arije\Downloads\SUMO2Unity-main\SUMO2Unity-main\Scenario2\Sumo2Unity.net.xml"/>
    </output>

    <processing>
        <geometry.min-radius.fix.railways value="false"/>
        <geometry.avoid-overlap value="false"/>
        <geometry.max-grade.fix value="false"/>
        <offset.disable-normalization value="true"/>
        <lefthand value="0"/>
    </processing>

    <junctions>
        <no-turnarounds value="true"/>
        <junctions.corner-detail value="5"/>
        <junctions.limit-turn-speed value="5.50"/>
        <rectangular-lane-cut value="0"/>
    </junctions>

    <pedestrian>
        <walkingareas value="0"/>
    </pedestrian>

</neteditConfiguration>
-->

<net version="1.20" junctionCornerDetail="5" limitTurnSpeed="5.50" avoidOverlap="0" xmlns:xsi="http://www.w3.org/2001/XMLSchema-instance" xsi:noNamespaceSchemaLocation="http://sumo.dlr.de/xsd/net_file.xsd">

    <location netOffset="0.00,0.00" convBoundary="-42.61,-35.47,76.65,57.65" origBoundary="-10000000000.00,-10000000000.00,10000000000.00,10000000000.00" projParameter="!"/>

    <edge id=":J1_0" function="internal">
        <lane id=":J1_0_0" index="0" speed="6.69" length="9.52" shape="32.74,22.27 30.19,22.59 28.35,23.68 27.21,25.52 26.77,28.13"/>
    </edge>
    <edge id=":J1_1" function="internal">
        <lane id=":J1_1_0" index="0" speed="13.89" length="27.51" shape="32.74,22.27 5.29,22.01"/>
        <lane id=":J1_1_1" index="1" speed="13.89" length="27.51" shape="32.80,19.07 5.29,18.81"/>
        <lane id=":J1_1_2" index="2" speed="13.89" length="27.51" shape="32.86,15.87 5.29,15.61"/>
    </edge>
    <edge id=":J1_4" function="internal">
        <lane id=":J1_4_0" index="0" speed="10.35" length="4.70" shape="32.86,15.87 28.22,15.11"/>
    </edge>
    <edge id=":J1_20" function="internal">
        <lane id=":J1_20_0" index="0" speed="10.35" length="19.94" shape="28.22,15.11 26.18,14.78 21.48,11.82 18.75,6.98 18.00,0.25"/>
    </edge>
    <edge id=":J1_5" function="internal">
        <lane id=":J1_5_0" index="0" speed="6.48" length="9.03" shape="27.59,0.55 27.87,3.01 28.87,4.79 30.59,5.87 33.04,6.27"/>
    </edge>
    <edge id=":J1_6" function="internal">
        <lane id=":J1_6_0" index="0" speed="13.89" length="27.60" shape="27.59,0.55 26.77,28.13"/>
        <lane id=":J1_6_1" index="1" speed="13.89" length="27.60" shape="24.40,0.45 23.57,28.03"/>
        <lane id=":J1_6_2" index="2" speed="13.89" length="27.60" shape="21.20,0.35 20.37,27.94"/>
    </edge>
    <edge id=":J1_9" function="internal">
        <lane id=":J1_9_0" index="0" speed="10.57" length="4.97" shape="21.20,0.35 20.34,5.24"/>
    </edge>
    <edge id=":J1_21" function="internal">
        <lane id=":J1_21_0" index="0" speed="10.57" length="20.00" shape="20.34,5.24 20.03,7.03 16.99,11.80 12.08,14.66 5.29,15.61"/>
    </edge>
    <edge id=":J1_10" function="internal">
        <lane id=":J1_10_0" index="0" speed="6.83" length="9.82" shape="5.29,6.01 7.98,5.64 9.93,4.52 11.14,2.66 11.60,0.06"/>
    </edge>
    <edge id=":J1_11" function="internal">
        <lane id=":J1_11_0" index="0" speed="13.89" length="27.69" shape="5.29,6.01 33.04,6.27"/>
        <lane id=":J1_11_1" index="1" speed="13.89" length="27.69" shape="5.29,9.21 32.98,9.47"/>
        <lane id=":J1_11_2" index="2" speed="13.89" length="27.69" shape="5.29,12.41 32.92,12.67"/>
    </edge>
    <edge id=":J1_14" function="internal">
        <lane id=":J1_14_0" index="0" speed="10.32" length="5.33" shape="5.29,12.41 10.57,13.17"/>
    </edge>
    <edge id=":J1_22" function="internal">
        <lane id=":J1_22_0" index="0" speed="10.32" length="19.52" shape="10.57,13.17 12.06,13.38 16.83,16.29 19.60,21.15 20.37,27.94"/>
    </edge>
    <edge id=":J1_15" function="internal">
        <lane id=":J1_15_0" index="0" speed="6.44" length="9.03" shape="10.77,27.66 10.49,25.19 9.49,23.42 7.75,22.36 5.29,22.01"/>
    </edge>
    <edge id=":J1_16" function="internal">
        <lane id=":J1_16_0" index="0" speed="13.89" length="27.61" shape="10.77,27.66 11.60,0.06"/>
        <lane id=":J1_16_1" index="1" speed="13.89" length="27.61" shape="13.97,27.75 14.80,0.16"/>
        <lane id=":J1_16_2" index="2" speed="13.89" length="27.61" shape="17.17,27.84 18.00,0.25"/>
    </edge>
    <edge id=":J1_19" function="internal">
        <lane id=":J1_19_0" index="0" speed="10.48" length="5.09" shape="17.17,27.84 18.03,22.82"/>
    </edge>
    <edge id=":J1_23" function="internal">
        <lane id=":J1_23_0" index="0" speed="10.48" length="19.79" shape="18.03,22.82 18.33,21.10 21.34,16.32 26.20,13.51 32.92,12.67"/>
    </edge>

    <edge id="-E10" from="J15" to="J1" priority="-1">
        <lane id="-E10_0" index="0" speed="13.89" length="43.77" shape="76.50,23.09 32.74,22.27"/>
        <lane id="-E10_1" index="1" speed="13.89" length="43.77" shape="76.56,19.89 32.80,19.07"/>
        <lane id="-E10_2" index="2" speed="13.89" length="43.77" shape="76.62,16.69 32.86,15.87"/>
    </edge>
    <edge id="-E11" from="J1" to="J16" priority="-1">
        <lane id="-E11_0" index="0" speed="13.89" length="35.79" shape="11.60,0.06 12.69,-35.71"/>
        <lane id="-E11_1" index="1" speed="13.89" length="35.79" shape="14.80,0.16 15.89,-35.62"/>
        <lane id="-E11_2" index="2" speed="13.89" length="35.79" shape="18.00,0.25 19.09,-35.52"/>
    </edge>
    <edge id="-E12" from="J1" to="J17" priority="-1">
        <lane id="-E12_0" index="0" speed="13.89" length="29.77" shape="26.77,28.13 25.89,57.89"/>
        <lane id="-E12_1" index="1" speed="13.89" length="29.77" shape="23.57,28.03 22.69,57.79"/>
        <lane id="-E12_2" index="2" speed="13.89" length="29.77" shape="20.37,27.94 19.49,57.70"/>
    </edge>
    <edge id="-E9" from="J1" to="J13" priority="-1">
        <lane id="-E9_0" index="0" speed="13.89" length="47.90" shape="5.29,22.01 -42.61,22.01"/>
        <lane id="-E9_1" index="1" speed="13.89" length="47.90" shape="5.29,18.81 -42.61,18.81"/>
        <lane id="-E9_2" index="2" speed="13.89" length="47.90" shape="5.29,15.61 -42.61,15.61"/>
    </edge>
    <edge id="E10" from="J1" to="J15" priority="-1">
        <lane id="E10_0" index="0" speed="13.89" length="43.77" shape="33.04,6.27 76.80,7.09"/>
        <lane id="E10_1" index="1" speed="13.89" length="43.77" shape="32.98,9.47 76.74,10.29"/>
        <lane id="E10_2" index="2" speed="13.89" length="43.77" shape="32.92,12.67 76.68,13.49"/>
    </edge>
    <edge id="E11" from="J16" to="J1" priority="-1">
        <lane id="E11_0" index="0" speed="13.89" length="35.79" shape="28.69,-35.23 27.59,0.55"/>
        <lane id="E11_1" index="1" speed="13.89" length="35.79" shape="25.49,-35.32 24.40,0.45"/>
        <lane id="E11_2" index="2" speed="13.89" length="35.79" shape="22.29,-35.42 21.20,0.35"/>
    </edge>
    <edge id="E12" from="J17" to="J1" priority="-1">
        <lane id="E12_0" index="0" speed="13.89" length="29.77" shape="9.89,57.41 10.77,27.66"/>
        <lane id="E12_1" index="1" speed="13.89" length="29.77" shape="13.09,57.51 13.97,27.75"/>
        <lane id="E12_2" index="2" speed="13.89" length="29.77" shape="16.29,57.60 17.17,27.84"/>
    </edge>
    <edge id="E9" from="J13" to="J1" priority="-1">
        <lane id="E9_0" index="0" speed="13.89" length="47.90" shape="-42.61,6.01 5.29,6.01"/>
        <lane id="E9_1" index="1" speed="13.89" length="47.90" shape="-42.61,9.21 5.29,9.21"/>
        <lane id="E9_2" index="2" speed="13.89" length="47.90" shape="-42.61,12.41 5.29,12.41"/>
    </edge>

    <tlLogic id="J1" type="static" programID="0" offset="0">
        <phase duration="42" state="rrrrrGGGGgrrrrrGGGGg"/>
        <phase duration="3"  state="rrrrryyyyyrrrrryyyyy"/>
        <phase duration="42" state="GGGGgrrrrrGGGGgrrrrr"/>
        <phase duration="3"  state="yyyyyrrrrryyyyyrrrrr"/>
    </tlLogic>

    <junction id="J1" type="traffic_light" x="19.18" y="14.01" incLanes="-E10_0 -E10_1 -E10_2 E11_0 E11_1 E11_2 E9_0 E9_1 E9_2 E12_0 E12_1 E12_2" intLanes=":J1_0_0 :J1_1_0 :J1_1_1 :J1_1_2 :J1_20_0 :J1_5_0 :J1_6_0 :J1_6_1 :J1_6_2 :J1_21_0 :J1_10_0 :J1_11_0 :J1_11_1 :J1_11_2 :J1_22_0 :J1_15_0 :J1_16_0 :J1_16_1 :J1_16_2 :J1_23_0" shape="32.71,23.87 33.07,4.67 30.86,4.18 30.10,3.61 29.57,2.83 29.27,1.82 29.19,0.60 10.00,0.01 9.42,2.45 8.76,3.31 7.85,3.92 6.69,4.29 5.29,4.41 5.29,23.61 7.50,24.05 8.26,24.61 8.80,25.39 9.10,26.39 9.17,27.61 28.37,28.18 28.91,25.75 29.52,24.90 30.35,24.31 31.42,23.96">
        <request index="0"  response="00000000000111000000" foes="00000000000111000000" cont="0"/>
        <request index="1"  response="11111000001111000000" foes="11111100001111000000" cont="0"/>
        <request index="2"  response="11111000001111000000" foes="11111100001111000000" cont="0"/>
        <request index="3"  response="11111000001111000000" foes="11111100001111000000" cont="0"/>
        <request index="4"  response="11110011101111000000" foes="11110011101111000000" cont="1"/>
        <request index="5"  response="00000000000000000000" foes="00000011100000000000" cont="0"/>
        <request index="6"  response="00000000000000010000" foes="10000111100000011111" cont="0"/>
        <request index="7"  response="00000000000000010000" foes="10000111100000011111" cont="0"/>
        <request index="8"  response="00000100000000010000" foes="10000111100000011111" cont="0"/>
        <request index="9"  response="01110100000000010000" foes="01110111100000011110" cont="1"/>
        <request index="10" response="01110000000000000000" foes="01110000000000000000" cont="0"/>
        <request index="11" response="11110000001111100000" foes="11110000001111110000" cont="0"/>
        <request index="12" response="11110000001111100000" foes="11110000001111110000" cont="0"/>
        <request index="13" response="11110000001111100000" foes="11110000001111110000" cont="0"/>
        <request index="14" response="11110000001111001110" foes="11110000001111001110" cont="1"/>
        <request index="15" response="00000000000000000000" foes="00000000000000001110" cont="0"/>
        <request index="16" response="00000100000000000000" foes="00000111111000011110" cont="0"/>
        <request index="17" response="00000100000000000000" foes="00000111111000011110" cont="0"/>
        <request index="18" response="00000100000000010000" foes="00000111111000011110" cont="0"/>
        <request index="19" response="00000100000111010000" foes="00000111100111011110" cont="1"/>
    </junction>
    <junction id="J13" type="dead_end" x="-42.61" y="14.01" incLanes="-E9_0 -E9_1 -E9_2" intLanes="" shape="-42.61,14.01 -42.61,23.61 -42.61,14.01"/>
    <junction id="J15" type="dead_end" x="76.65" y="15.09" incLanes="E10_0 E10_1 E10_2" intLanes="" shape="76.65,15.09 76.83,5.49 76.65,15.09"/>
    <junction id="J16" type="dead_end" x="20.69" y="-35.47" incLanes="-E11_0 -E11_1 -E11_2" intLanes="" shape="20.69,-35.47 11.09,-35.76 20.69,-35.47"/>
    <junction id="J17" type="dead_end" x="17.89" y="57.65" incLanes="-E12_0 -E12_1 -E12_2" intLanes="" shape="17.89,57.65 27.49,57.93 17.89,57.65"/>

    <junction id=":J1_20_0" type="internal" x="28.22" y="15.11" incLanes=":J1_4_0 E9_0 E9_1 E9_2" intLanes=":J1_6_0 :J1_6_1 :J1_6_2 :J1_9_0 :J1_10_0 :J1_11_0 :J1_11_1 :J1_11_2 :J1_16_0 :J1_16_1 :J1_16_2 :J1_19_0"/>
    <junction id=":J1_21_0" type="internal" x="20.34" y="5.24" incLanes=":J1_9_0 E12_0 E12_1 E12_2" intLanes=":J1_1_0 :J1_1_1 :J1_1_2 :J1_4_0 :J1_11_0 :J1_11_1 :J1_11_2 :J1_14_0 :J1_15_0 :J1_16_0 :J1_16_1 :J1_16_2"/>
    <junction id=":J1_22_0" type="internal" x="10.57" y="13.17" incLanes=":J1_14_0 -E10_0 -E10_1 -E10_2" intLanes=":J1_0_0 :J1_1_0 :J1_1_1 :J1_1_2 :J1_6_0 :J1_6_1 :J1_6_2 :J1_9_0 :J1_16_0 :J1_16_1 :J1_16_2 :J1_19_0"/>
    <junction id=":J1_23_0" type="internal" x="18.03" y="22.82" incLanes=":J1_19_0 E11_0 E11_1 E11_2" intLanes=":J1_1_0 :J1_1_1 :J1_1_2 :J1_4_0 :J1_5_0 :J1_6_0 :J1_6_1 :J1_6_2 :J1_11_0 :J1_11_1 :J1_11_2 :J1_14_0"/>

    <connection from="-E10" to="-E12" fromLane="0" toLane="0" via=":J1_0_0" tl="J1" linkIndex="0" dir="r" state="o"/>
    <connection from="-E10" to="-E9" fromLane="0" toLane="0" via=":J1_1_0" tl="J1" linkIndex="1" dir="s" state="o"/>
    <connection from="-E10" to="-E9" fromLane="1" toLane="1" via=":J1_1_1" tl="J1" linkIndex="2" dir="s" state="o"/>
    <connection from="-E10" to="-E9" fromLane="2" toLane="2" via=":J1_1_2" tl="J1" linkIndex="3" dir="s" state="o"/>
    <connection from="-E10" to="-E11" fromLane="2" toLane="2" via=":J1_4_0" tl="J1" linkIndex="4" dir="l" state="o"/>
    <connection from="E11" to="E10" fromLane="0" toLane="0" via=":J1_5_0" tl="J1" linkIndex="5" dir="r" state="O"/>
    <connection from="E11" to="-E12" fromLane="0" toLane="0" via=":J1_6_0" tl="J1" linkIndex="6" dir="s" state="O"/>
    <connection from="E11" to="-E12" fromLane="1" toLane="1" via=":J1_6_1" tl="J1" linkIndex="7" dir="s" state="O"/>
    <connection from="E11" to="-E12" fromLane="2" toLane="2" via=":J1_6_2" tl="J1" linkIndex="8" dir="s" state="O"/>
    <connection from="E11" to="-E9" fromLane="2" toLane="2" via=":J1_9_0" tl="J1" linkIndex="9" dir="l" state="o"/>
    <connection from="E12" to="-E9" fromLane="0" toLane="0" via=":J1_15_0" tl="J1" linkIndex="15" dir="r" state="O"/>
    <connection from="E12" to="-E11" fromLane="0" toLane="0" via=":J1_16_0" tl="J1" linkIndex="16" dir="s" state="O"/>
    <connection from="E12" to="-E11" fromLane="1" toLane="1" via=":J1_16_1" tl="J1" linkIndex="17" dir="s" state="O"/>
    <connection from="E12" to="-E11" fromLane="2" toLane="2" via=":J1_16_2" tl="J1" linkIndex="18" dir="s" state="O"/>
    <connection from="E12" to="E10" fromLane="2" toLane="2" via=":J1_19_0" tl="J1" linkIndex="19" dir="l" state="o"/>
    <connection from="E9" to="-E11" fromLane="0" toLane="0" via=":J1_10_0" tl="J1" linkIndex="10" dir="r" state="o"/>
    <connection from="E9" to="E10" fromLane="0" toLane="0" via=":J1_11_0" tl="J1" linkIndex="11" dir="s" state="o"/>
    <connection from="E9" to="E10" fromLane="1" toLane="1" via=":J1_11_1" tl="J1" linkIndex="12" dir="s" state="o"/>
    <connection from="E9" to="E10" fromLane="2" toLane="2" via=":J1_11_2" tl="J1" linkIndex="13" dir="s" state="o"/>
    <connection from="E9" to="-E12" fromLane="2" toLane="2" via=":J1_14_0" tl="J1" linkIndex="14" dir="l" state="o"/>

    <connection from=":J1_0" to="-E12" fromLane="0" toLane="0" dir="r" state="M"/>
    <connection from=":J1_1" to="-E9" fromLane="0" toLane="0" dir="s" state="M"/>
    <connection from=":J1_1" to="-E9" fromLane="1" toLane="1" dir="s" state="M"/>
    <connection from=":J1_1" to="-E9" fromLane="2" toLane="2" dir="s" state="M"/>
    <connection from=":J1_4" to="-E11" fromLane="0" toLane="2" via=":J1_20_0" dir="l" state="m"/>
    <connection from=":J1_20" to="-E11" fromLane="0" toLane="2" dir="l" state="M"/>
    <connection from=":J1_5" to="E10" fromLane="0" toLane="0" dir="r" state="M"/>
    <connection from=":J1_6" to="-E12" fromLane="0" toLane="0" dir="s" state="M"/>
    <connection from=":J1_6" to="-E12" fromLane="1" toLane="1" dir="s" state="M"/>
    <connection from=":J1_6" to="-E12" fromLane="2" toLane="2" dir="s" state="M"/>
    <connection from=":J1_9" to="-E9" fromLane="0" toLane="2" via=":J1_21_0" dir="l" state="m"/>
    <connection from=":J1_21" to="-E9" fromLane="0" toLane="2" dir="l" state="M"/>
    <connection from=":J1_10" to="-E11" fromLane="0" toLane="0" dir="r" state="M"/>
    <connection from=":J1_11" to="E10" fromLane="0" toLane="0" dir="s" state="M"/>
    <connection from=":J1_11" to="E10" fromLane="1" toLane="1" dir="s" state="M"/>
    <connection from=":J1_11" to="E10" fromLane="2" toLane="2" dir="s" state="M"/>
    <connection from=":J1_14" to="-E12" fromLane="0" toLane="2" via=":J1_22_0" dir="l" state="m"/>
    <connection from=":J1_22" to="-E12" fromLane="0" toLane="2" dir="l" state="M"/>
    <connection from=":J1_15" to="-E9" fromLane="0" toLane="0" dir="r" state="M"/>
    <connection from=":J1_16" to="-E11" fromLane="0" toLane="0" dir="s" state="M"/>
    <connection from=":J1_16" to="-E11" fromLane="1" toLane="1" dir="s" state="M"/>
    <connection from=":J1_16" to="-E11" fromLane="2" toLane="2" dir="s" state="M"/>
    <connection from=":J1_19" to="E10" fromLane="0" toLane="2" via=":J1_23_0" dir="l" state="m"/>
    <connection from=":J1_23" to="E10" fromLane="0" toLane="2" dir="l" state="M"/>

</net>
