<?xml version="1.0" encoding="UTF-8"?>

<!-- generated on 2026-04-12T00:23:35.160392+05:30 by Eclipse SUMO netedit 1.26.0
-->

<additional xmlns:xsi="http://www.w3.org/2001/XMLSchema-instance" xsi:noNamespaceSchemaLocation="http://sumo.dlr.de/xsd/additional_file.xsd">
    <!-- Shapes -->
    <poly id="po_0" type="Terrain" color="red" fill="0" layer="0.00" shape="-96.742685,67.569377 161.284586,73.221403 168.902534,-51.614648 -93.548061,-56.529453 -96.496944,67.815117"/>
    <poly id="po_1" type="Residential" color="208,208,208" fill="1" layer="0.00" shape="29.619099,43.562117 30.794007,25.602820 76.279704,26.106351 75.272641,45.576244 29.619099,43.729961"/>
    <poly id="po_2" type="Wood" color="255,110,110" fill="1" layer="0.00" shape="-40.371808,0.761922 5.281734,1.265454 6.120953,-24.582507 -41.378871,-23.407600 -40.203964,1.097610"/>
    <poly id="po_3" type="Roadside" color="195,195,195" fill="1" layer="0.00" shape="-43.721857,18.144371 -43.721857,24.354596 5.120718,24.186752 7.638377,25.193815 8.477596,27.375786 7.470533,58.091220 27.779645,58.426908 28.954553,28.047162 30.465148,25.025971 32.479275,24.186752 77.461440,25.193815 77.797128,5.052547 34.325557,3.709796 31.807899,3.541952 29.961616,2.534889 29.458084,0.520762 31.136523,-35.397833 30.632992,-36.404897 10.156035,-36.740585 9.148972,-1.325521 8.813284,2.199201 6.967001,3.374108 5.624250,3.709796 -44.057545,3.877640 -43.889701,20.829874"/>
</additional>
